
 OpenBabel07092509173D

 52 52  0  0  0  0  0  0  0  0999 V2000
    4.3205   -2.1655   -0.1402 O   0  0  0  0  0  0  0  0  0  0  0  0
   -1.9494    1.8657    0.4914 C   0  0  0  0  0  0  0  0  0  0  0  0
   -0.7660    2.2242   -0.4146 C   0  0  0  0  0  0  0  0  0  0  0  0
   -3.2412    2.5203   -0.0189 C   0  0  0  0  0  0  0  0  0  0  0  0
    0.5192    1.5331    0.0540 C   0  0  0  0  0  0  0  0  0  0  0  0
   -4.4678    2.2340    0.8685 C   0  0  0  0  0  0  0  0  0  0  0  0
    1.7049    1.9191   -0.8419 C   0  0  0  0  0  0  0  0  0  0  0  0
   -4.8393    0.7464    0.9864 C   0  0  0  0  0  0  0  0  0  0  0  0
    2.9726    1.2273   -0.4070 C   0  0  0  0  0  0  0  0  0  0  0  0
   -5.1531    0.1516   -0.3686 C   0  0  0  0  0  0  0  0  0  0  0  0
    3.0738   -0.1731   -0.4718 C   0  0  0  0  0  0  0  0  0  0  0  0
    4.0691    1.9729    0.0582 C   0  0  0  0  0  0  0  0  0  0  0  0
   -4.5329   -0.8920   -0.9572 C   0  0  0  0  0  0  0  0  0  0  0  0
    4.2475   -0.8209   -0.0704 C   0  0  0  0  0  0  0  0  0  0  0  0
    5.2419    1.3268    0.4594 C   0  0  0  0  0  0  0  0  0  0  0  0
   -3.3983   -1.7116   -0.3888 C   0  0  0  0  0  0  0  0  0  0  0  0
    5.3326   -0.0660    0.3974 C   0  0  0  0  0  0  0  0  0  0  0  0
   -2.1763   -1.6005   -1.2649 C   0  0  0  0  0  0  0  0  0  0  0  0
   -1.0193   -2.2423   -1.0172 C   0  0  0  0  0  0  0  0  0  0  0  0
   -0.7766   -3.1578    0.1573 C   0  0  0  0  0  0  0  0  0  0  0  0
    0.3657   -2.6275    0.9771 C   0  0  0  0  0  0  0  0  0  0  0  0
    0.2236   -2.2906    2.2621 C   0  0  0  0  0  0  0  0  0  0  0  0
   -2.0651    0.7641    0.4980 H   0  0  0  0  0  0  0  0  0  0  0  0
   -1.7408    2.2108    1.5277 H   0  0  0  0  0  0  0  0  0  0  0  0
   -0.9881    1.8999   -1.4556 H   0  0  0  0  0  0  0  0  0  0  0  0
   -0.6213    3.3271   -0.4061 H   0  0  0  0  0  0  0  0  0  0  0  0
   -3.4460    2.1759   -1.0560 H   0  0  0  0  0  0  0  0  0  0  0  0
   -3.0952    3.6223   -0.0485 H   0  0  0  0  0  0  0  0  0  0  0  0
    0.7433    1.8350    1.1010 H   0  0  0  0  0  0  0  0  0  0  0  0
    0.3628    0.4328    0.0268 H   0  0  0  0  0  0  0  0  0  0  0  0
   -4.2835    2.6377    1.8879 H   0  0  0  0  0  0  0  0  0  0  0  0
   -5.3354    2.7827    0.4405 H   0  0  0  0  0  0  0  0  0  0  0  0
    1.8331    3.0231   -0.7924 H   0  0  0  0  0  0  0  0  0  0  0  0
    1.4943    1.6459   -1.8989 H   0  0  0  0  0  0  0  0  0  0  0  0
   -5.7493    0.6614    1.6174 H   0  0  0  0  0  0  0  0  0  0  0  0
   -4.0362    0.2233    1.5298 H   0  0  0  0  0  0  0  0  0  0  0  0
   -5.9583    0.6246   -0.9242 H   0  0  0  0  0  0  0  0  0  0  0  0
    2.2423   -0.7605   -0.8392 H   0  0  0  0  0  0  0  0  0  0  0  0
    4.0173    3.0531    0.1141 H   0  0  0  0  0  0  0  0  0  0  0  0
   -4.8820   -1.1797   -1.9454 H   0  0  0  0  0  0  0  0  0  0  0  0
    6.0820    1.9069    0.8191 H   0  0  0  0  0  0  0  0  0  0  0  0
   -3.7307   -2.7705   -0.3481 H   0  0  0  0  0  0  0  0  0  0  0  0
   -3.1168   -1.4087    0.6328 H   0  0  0  0  0  0  0  0  0  0  0  0
    6.2458   -0.5562    0.7105 H   0  0  0  0  0  0  0  0  0  0  0  0
   -2.2186   -0.9636   -2.1453 H   0  0  0  0  0  0  0  0  0  0  0  0
    5.1129   -2.6525    0.1273 H   0  0  0  0  0  0  0  0  0  0  0  0
   -0.1962   -2.0907   -1.7105 H   0  0  0  0  0  0  0  0  0  0  0  0
   -1.6819   -3.2734    0.7879 H   0  0  0  0  0  0  0  0  0  0  0  0
   -0.5069   -4.1652   -0.2228 H   0  0  0  0  0  0  0  0  0  0  0  0
    1.3384   -2.5157    0.5097 H   0  0  0  0  0  0  0  0  0  0  0  0
    1.0741   -1.9110    2.8190 H   0  0  0  0  0  0  0  0  0  0  0  0
   -0.7324   -2.3864    2.7676 H   0  0  0  0  0  0  0  0  0  0  0  0
  1 14  1  0  0  0  0
  1 46  1  0  0  0  0
  2  3  1  0  0  0  0
  2  4  1  0  0  0  0
  2 23  1  0  0  0  0
  2 24  1  0  0  0  0
  3  5  1  0  0  0  0
  3 25  1  0  0  0  0
  3 26  1  0  0  0  0
  4  6  1  0  0  0  0
  4 27  1  0  0  0  0
  4 28  1  0  0  0  0
  5  7  1  0  0  0  0
  5 29  1  0  0  0  0
  5 30  1  0  0  0  0
  6  8  1  0  0  0  0
  6 31  1  0  0  0  0
  6 32  1  0  0  0  0
  7  9  1  0  0  0  0
  7 33  1  0  0  0  0
  7 34  1  0  0  0  0
  8 10  1  0  0  0  0
  8 35  1  0  0  0  0
  8 36  1  0  0  0  0
  9 11  2  0  0  0  0
  9 12  1  0  0  0  0
 10 13  2  0  0  0  0
 10 37  1  0  0  0  0
 11 14  1  0  0  0  0
 11 38  1  0  0  0  0
 12 15  2  0  0  0  0
 12 39  1  0  0  0  0
 13 16  1  0  0  0  0
 13 40  1  0  0  0  0
 14 17  2  0  0  0  0
 15 17  1  0  0  0  0
 15 41  1  0  0  0  0
 16 18  1  0  0  0  0
 16 42  1  0  0  0  0
 16 43  1  0  0  0  0
 17 44  1  0  0  0  0
 18 19  2  0  0  0  0
 18 45  1  0  0  0  0
 19 20  1  0  0  0  0
 19 47  1  0  0  0  0
 20 21  1  0  0  0  0
 20 48  1  0  0  0  0
 20 49  1  0  0  0  0
 21 22  2  0  0  0  0
 21 50  1  0  0  0  0
 22 51  1  0  0  0  0
 22 52  1  0  0  0  0
M  END
